@<TRIPOS>MOLECULE
scratch
31 31 1 0 0
SMALL
AMBER ff99SB


@<TRIPOS>ATOM
      1 N1          2.1903   -1.1534   -0.0000 N.4       1 UNK    0.0000
      2 C10         3.6379   -1.1534    0.0000 C.3       1 UNK    0.0000
      3 C3          1.4665   -2.4070   -0.0000 C.3       1 UNK    0.0000
      4 H31         2.1744   -3.2359   -0.0000 H         1 UNK    0.0000
      5 C4          0.5904   -2.4875    1.2449 C.ar      1 UNK    0.0000
      6 HC31        0.8396   -2.4646   -0.8898 H         1 UNK    0.0000
      7 C6          0.1505   -1.3117    1.8700 C.ar      1 UNK    0.0000
      8 C5          0.2243   -3.7374    1.7651 C.ar      1 UNK    0.0000
      9 H51         0.5631   -4.6429    1.2837 H         1 UNK    0.0000
     10 H61         0.4324   -0.3492    1.4694 H         1 UNK    0.0000
     11 C7         -0.6556   -1.3858    3.0153 C.ar      1 UNK    0.0000
     12 C8         -1.0217   -2.6357    3.5355 C.ar      1 UNK    0.0000
     13 H72        -0.9943   -0.4803    3.4967 H         1 UNK    0.0000
     14 C9         -0.5817   -3.8115    2.9104 C.ar      1 UNK    0.0000
     15 H82        -1.6424   -2.6927    4.4175 H         1 UNK    0.0000
     16 H91        -0.8637   -4.7740    3.3110 H         1 UNK    0.0000
     17 C11         4.1468   -2.5903   -0.0000 C.2       1 UNK    0.0000
     18 H102        4.0010   -0.6396   -0.8901 H         1 UNK    0.0000
     19 HC101       4.0012   -0.6393    0.8898 H         1 UNK    0.0000
     20 N2          5.4563   -2.8330    0.0000 N.am      1 UNK    0.0000
     21 O2          3.3423   -3.5322   -0.0000 O.2       1 UNK    0.0000
     22 C12         5.9395   -4.1976   -0.0000 C.3       1 UNK    0.0000
     23 H121        7.0295   -4.1976   -0.0000 H         1 UNK    0.0000
     24 H122        5.5764   -4.7113    0.8901 H         1 UNK    0.0000
     25 HC121       5.5761   -4.7117   -0.8898 H         1 UNK    0.0000
     26 H11         1.8988   -0.6486   -0.8248 H         1 UNK    0.0000
     27 H12         1.8852   -0.6250    0.8048 H         1 UNK    0.0000
     28 C1          6.3964   -1.7323   -0.0000 C.3       1 UNK    0.0000
     29 H1          7.4140   -2.1229    0.0000 H         1 UNK    0.0000
     30 H2          6.2416   -1.1225    0.8901 H         1 UNK    0.0000
     31 HC11        6.2415   -1.1221   -0.8898 H         1 UNK    0.0000
@<TRIPOS>BOND
     1    2    1 1
     2    3    1 1
     3    4    3 1
     4    5    3 1
     5    6    3 1
     6    7    5 ar
     7    8    5 ar
     8    9    8 1
     9   10    7 1
    10   11    7 ar
    11   12   11 ar
    12   13   11 1
    13   14   12 ar
    14   15   12 1
    15   16   14 1
    16    8   14 ar
    17   17    2 1
    18   18    2 1
    19   19    2 1
    20   20   17 am
    21   21   17 2
    22   22   20 1
    23   23   22 1
    24   24   22 1
    25   25   22 1
    26   26    1 1
    27   27    1 1
    28   28   20 1
    29   29   28 1
    30   30   28 1
    31   31   28 1
@<TRIPOS>SUBSTRUCTURE
     1 UNK     1 RESIDUE           4 A     UNK     0 ROOT
