@<TRIPOS>MOLECULE
N-2-6-dimethylphenyl_Nterm.pdb
   38    38     1     0     0
SMALL
No Charge or Current Charge


@<TRIPOS>ATOM
      1 N          -0.0470   -0.0620    0.0530 n         1 UNK     -0.393000
      2 CA          1.4400   -0.1980    0.1040 c3        1 UNK      0.044000
      3 C3         -0.5630    1.1940   -0.0110 c         1 UNK      0.675100
      4 C5         -0.8840   -1.2280    0.0140 ca        1 UNK      0.021600
      5 C           2.1230   -1.5660    0.2210 c         1 UNK      0.644100
      6 HA2         1.8070    0.3800    0.9540 h1        1 UNK      0.085700
      7 HCA1        1.8320    0.2520   -0.8110 h1        1 UNK      0.073700
      8 O           1.5520   -2.5980    0.5050 o         1 UNK     -0.601100
      9 N1          3.4750   -1.5930    0.0660 n         1 UNK     -0.480800
     10 C2          4.2160   -2.8700    0.0850 c3        1 UNK      0.076300
     11 C1          4.3210   -0.4000   -0.1480 c3        1 UNK      0.079300
     12 H1          5.3830   -0.6620   -0.1640 h1        1 UNK      0.050700
     13 H2          4.1580    0.3170    0.6620 h1        1 UNK      0.030700
     14 HC11        4.0660    0.0670   -1.1030 h1        1 UNK      0.033700
     15 H21         5.2940   -2.7100    0.1600 h1        1 UNK      0.025700
     16 H22         3.8920   -3.4730    0.9400 h1        1 UNK      0.079700
     17 HC21        4.0000   -3.4180   -0.8360 h1        1 UNK      0.031700
     18 O1          0.1590    2.1690    0.0130 o         1 UNK     -0.603100
     19 H41        -2.3180    2.4120   -0.1660 hc        1 UNK      0.074700
     20 HC41       -2.5550    0.9090    0.7420 hc        1 UNK      0.070700
     21 C6         -1.1780   -1.8410   -1.2150 ca        1 UNK     -0.074300
     22 C7         -1.9700   -2.9910   -1.2360 ca        1 UNK     -0.140000
     23 C8         -2.4650   -3.5280   -0.0520 ca        1 UNK     -0.116000
     24 H72        -2.1840   -3.4890   -2.1790 ha        1 UNK      0.134000
     25 H81        -3.0670   -4.4330   -0.0760 ha        1 UNK      0.134000
     26 C9         -2.1700   -2.9210    1.1660 ca        1 UNK     -0.141000
     27 C10        -1.3810   -1.7720    1.2090 ca        1 UNK     -0.049300
     28 H92        -2.5360   -3.3680    2.0870 ha        1 UNK      0.137000
     29 C11        -1.0280   -1.1630    2.5610 c3        1 UNK     -0.064800
     30 H111       -1.4950   -1.7140    3.3800 hc        1 UNK      0.036700
     31 H112       -1.3610   -0.1260    2.6200 hc        1 UNK      0.060700
     32 H121       -0.9720   -1.8850   -3.3780 hc        1 UNK      0.043700
     33 H5          0.4690   -1.3340   -2.5200 hc        1 UNK      0.043700
     34 C4         -2.0610    1.3530   -0.1220 c3        1 UNK     -0.166100
     35 H6         -2.4280    0.8670   -1.0270 hc        1 UNK      0.064700
     36 C12        -0.6220   -1.2990   -2.5260 c3        1 UNK     -0.052800
     37 H7          0.0530   -1.1890    2.7120 hc        1 UNK      0.078700
     38 H3         -0.9350   -0.2650   -2.6820 hc        1 UNK      0.049700
@<TRIPOS>BOND
     1    5    2 1   
     2    5    8 2   
     3    5    9 1   
     4   11    9 1   
     5   11   13 1   
     6   11   14 1   
     7   11   12 1   
     8   27    4 ar  
     9   27   29 1   
    10   27   26 ar  
    11   29   37 1   
    12   29   31 1   
    13   29   30 1   
    14   10    9 1   
    15   10   17 1   
    16   10   15 1   
    17   10   16 1   
    18    3    1 1   
    19    3   34 1   
    20    3   18 2   
    21    4    1 1   
    22    4   21 ar  
    23   21   36 1   
    24   21   22 ar  
    25   22   24 1   
    26   22   23 ar  
    27   23   26 ar  
    28   23   25 1   
    29   26   28 1   
    30    2    1 1   
    31    2    6 1   
    32    2    7 1   
    33   33   36 1   
    34   32   36 1   
    35   19   34 1   
    36   20   34 1   
    37   34   35 1   
    38   36   38 1   
@<TRIPOS>SUBSTRUCTURE
     1 UNK         1 TEMP              0 ****  ****    0 ROOT
