@<TRIPOS>MOLECULE
NSPE.pdb
34 34 1 0 0
SMALL
AMBER ff99SB


@<TRIPOS>ATOM
      1 N           7.8337   -4.7347   -8.8388 N.4       1 UNK   -0.7600
      2 C2          7.4377   -5.4684  -10.0885 C.3       1 UNK    0.2018
      3 H21         6.3429   -5.4972  -10.1120 H         1 UNK    0.1007
      4 C11         7.9390   -4.6522  -11.2912 C.3       1 UNK   -0.1301
      5 C3          7.9608   -6.8935  -10.0655 C.ar      1 UNK   -0.1813
      6 C4          7.0543   -7.9532  -10.1484 C.ar      1 UNK   -0.1050
      7 C5          7.5076   -9.2708  -10.1293 C.ar      1 UNK   -0.1170
      8 H42         5.9863   -7.7602  -10.2417 H         1 UNK    0.1400
      9 C6          8.8709   -9.5389  -10.0261 C.ar      1 UNK   -0.0820
     10 H52         6.7973  -10.0930  -10.2061 H         1 UNK    0.1600
     11 H61         9.2254  -10.5689  -10.0209 H         1 UNK    0.1620
     12 C7          9.7808   -8.4868   -9.9446 C.ar      1 UNK   -0.1120
     13 H71        10.8472   -8.6974   -9.8766 H         1 UNK    0.1610
     14 C8          9.3294   -7.1679   -9.9649 C.ar      1 UNK   -0.1130
     15 H81        10.0577   -6.3612   -9.9164 H         1 UNK    0.1360
     16 CA          7.3715   -5.4389   -7.5524 C.3       1 UNK    0.0168
     17 HA2         6.2814   -5.5011   -7.5440 H         1 UNK    0.1147
     18 C           7.7920   -4.7073   -6.2870 C.2       1 UNK    0.6411
     19 HA1         7.8098   -6.4395   -7.5093 H         1 UNK    0.1317
     20 O           8.3418   -3.6317   -6.3888 O.2       1 UNK   -0.6111
     21 N2          7.5604   -5.2908   -5.0870 N.am      1 UNK   -0.4338
     22 H111        7.6642   -5.1548  -12.2226 H         1 UNK    0.1057
     23 H112        7.4900   -3.6564  -11.3023 H         1 UNK    0.0637
     24 H113        8.8834   -4.5586  -11.2802 H         1 UNK    0.0717
     25 C10         6.9055   -6.6015   -4.9083 C.3       1 UNK    0.0613
     26 C14         7.9409   -4.6380   -3.8170 C.3       1 UNK    0.0663
     27 H101        6.6496   -6.7724   -3.8569 H         1 UNK    0.0887
     28 H102        7.5827   -7.3948   -5.2385 H         1 UNK    0.0407
     29 H3          5.9837   -6.6434   -5.4959 H         1 UNK    0.0437
     30 H141        8.2385   -5.3849   -3.0750 H         1 UNK    0.0597
     31 H142        7.0923   -4.0648   -3.4321 H         1 UNK    0.0597
     32 H4          8.7835   -3.9554   -3.9734 H         1 UNK    0.0927
     33 H2          8.8635   -4.6142   -8.7991 H         1 UNK    0.4728
     34 H1          7.4763   -3.7585   -8.8366 H         1 UNK    0.4528
@<TRIPOS>BOND
     1   18   16 1
     2   18   20 2
     3   18   21 am
     4   25   21 1
     5   25   27 1
     6   25   28 1
     7   25   29 1
     8    4    2 1
     9    4   22 1
    10    4   23 1
    11    4   24 1
    12   26   21 1
    13   26   30 1
    14   26   31 1
    15   26   32 1
    16    2    1 1
    17    2    3 1
    18    2    5 1
    19    5    6 ar
    20    5   14 ar
    21    6    8 1
    22    6    7 ar
    23    7   10 1
    24    7    9 ar
    25    9   11 1
    26    9   12 ar
    27   12   13 1
    28   12   14 ar
    29   14   15 1
    30   16    1 1
    31   16   17 1
    32   16   19 1
    33   34    1 1
    34   33    1 1
@<TRIPOS>SUBSTRUCTURE
     1 UNK    16 RESIDUE           4 A     UNK     0 ROOT
