@<TRIPOS>MOLECULE
NSPE.pdb
34 34 1 0 0
SMALL
No Charge or Current Charge


@<TRIPOS>ATOM
      1 N           7.8340   -4.7350   -8.8390 n4        1 UNK   -0.7600
      2 C2          7.4380   -5.4680  -10.0880 C.3       1 UNK    0.2018
      3 C1          6.6762   -5.4882  -10.1047 C.3       1 UNK    0.1007
      4 C3          7.9610   -6.8940  -10.0660 ca        1 UNK   -0.1813
      5 C4          7.0540   -7.9530  -10.1480 ca        1 UNK   -0.1050
      6 C5          7.5080   -9.2710  -10.1290 ca        1 UNK   -0.1170
      7 H42         5.9860   -7.7600  -10.2420 ha        1 UNK    0.1400
      8 C6          8.8710   -9.5390  -10.0260 ca        1 UNK   -0.0820
      9 H52         6.7970  -10.0930  -10.2060 ha        1 UNK    0.1600
     10 H61         9.2250  -10.5690  -10.0210 ha        1 UNK    0.1620
     11 C7          9.7810   -8.4870   -9.9450 ca        1 UNK   -0.1120
     12 H71        10.8470   -8.6970   -9.8770 ha        1 UNK    0.1610
     13 C8          9.3290   -7.1680   -9.9650 ca        1 UNK   -0.1130
     14 H81        10.0580   -6.3610   -9.9160 ha        1 UNK    0.1360
     15 CA          7.3720   -5.4390   -7.5520 c3        1 UNK    0.0168
     16 HA2         6.2810   -5.5010   -7.5440 hx        1 UNK    0.1147
     17 C           7.7920   -4.7070   -6.2870 c         1 UNK    0.6411
     18 HA1         7.8100   -6.4390   -7.5090 hx        1 UNK    0.1317
     19 O           8.3420   -3.6320   -6.3890 o         1 UNK   -0.6111
     20 N2          7.5600   -5.2910   -5.0870 n         1 UNK   -0.4338
     21 C10         6.9050   -6.6010   -4.9080 c3        1 UNK    0.0613
     22 C14         7.9410   -4.6380   -3.8170 c3        1 UNK    0.0663
     23 H101        6.6500   -6.7720   -3.8570 h1        1 UNK    0.0887
     24 H102        7.5830   -7.3950   -5.2390 h1        1 UNK    0.0407
     25 H3          5.9840   -6.6430   -5.4960 h1        1 UNK    0.0437
     26 H141        8.2390   -5.3850   -3.0750 h1        1 UNK    0.0597
     27 H142        7.0920   -4.0650   -3.4320 h1        1 UNK    0.0597
     28 H4          8.7840   -3.9550   -3.9730 h1        1 UNK    0.0927
     29 H2          8.8640   -4.6140   -8.7990 hn        1 UNK    0.4728
     30 H1          7.4760   -3.7590   -8.8370 hn        1 UNK    0.4528
     31 H11         6.3088   -6.0646   -9.2557 H         1 UNK    0.0000
     32 H12         6.2849   -4.4723  -10.0505 H         1 UNK    0.0000
     33 HC11        6.3454   -5.9560  -11.0320 H         1 UNK    0.0000
     34 H21         7.8136   -4.9379  -10.9632 H         1 UNK    0.0000
@<TRIPOS>BOND
     1   17   15 1
     2   17   19 2
     3   17   20 1
     4   21   20 1
     5   21   23 1
     6   21   24 1
     7   21   25 1
     8   22   20 1
     9   22   26 1
    10   22   27 1
    11   22   28 1
    12    2    1 1
    13    2    3 1
    14    5    7 1
    15    6    9 1
    16    8   10 1
    17   11   12 1
    18   13   14 1
    19   15    1 1
    20   15   16 1
    21   15   18 1
    22   30    1 1
    23   29    1 1
    24   31    3 1
    25   32    3 1
    26   33    3 1
    27    2    4 1
    28   34    2 1
    29   13    4 ar
    30   13   11 ar
    31    4    5 ar
    32    5    6 ar
    33    6    8 ar
    34    8   11 ar
@<TRIPOS>SUBSTRUCTURE
     1 UNK     1 RESIDUE           4 A     UNK     0 ROOT
