@<TRIPOS>MOLECULE
N-2-6-dimethylphenyl_Nterm.pdb
   44    45     1     0     0
SMALL
No Charge or Current Charge


@<TRIPOS>ATOM
      1 N           0.0300   -0.0940    0.0420 n         1 UNK     -0.470800
      2 CA          1.5310   -0.2450    0.0370 c3        1 UNK      0.032000
      3 C3         -0.4590    1.1790    0.0740 c         1 UNK      0.666100
      4 C5         -0.8320   -1.3120   -0.0630 c3        1 UNK      0.170000
      5 C           2.3210   -1.5650   -0.0120 c         1 UNK      0.642100
      6 HA2         1.9010    0.2520    0.9370 h1        1 UNK      0.097700
      7 HCA1        1.8960    0.3240   -0.8200 h1        1 UNK      0.066700
      8 O           1.8350   -2.6690   -0.1140 o         1 UNK     -0.611100
      9 N1          3.6780   -1.4630    0.0090 n         1 UNK     -0.477800
     10 C2          4.5310   -2.6690    0.0120 c3        1 UNK      0.075300
     11 C1          4.4240   -0.1900   -0.0630 c3        1 UNK      0.077300
     12 H1          5.5050   -0.3590   -0.0700 h1        1 UNK      0.050700
     13 H2          4.1740    0.4350    0.7990 h1        1 UNK      0.036700
     14 HC11        4.1540    0.3370   -0.9820 h1        1 UNK      0.034700
     15 H21         5.5710   -2.4270    0.2490 h1        1 UNK      0.026700
     16 H22         4.1580   -3.3750    0.7600 h1        1 UNK      0.079700
     17 HC21        4.4860   -3.1460   -0.9720 h1        1 UNK      0.032700
     18 O1          0.2970    2.1200    0.1940 o         1 UNK     -0.615100
     19 H41        -2.1300    2.5060   -0.0450 hc        1 UNK      0.074700
     20 HC41       -2.4610    1.0000    0.8240 hc        1 UNK      0.079700
     21 C4         -1.9430    1.4310   -0.0330 c3        1 UNK     -0.170100
     22 H6         -2.3380    1.0020   -0.9550 hc        1 UNK      0.060700
     23 H51        -1.8680   -0.9890    0.0270 h1        1 UNK      0.043700
     24 C6         -0.7740   -1.7850   -1.5380 c3        1 UNK     -0.108100
     25 C7         -0.7100   -2.2610    1.1660 ca        1 UNK     -0.108300
     26 H61        -1.7210   -2.2380   -1.8390 hc        1 UNK      0.058700
     27 H62        -0.6200   -0.9360   -2.2070 hc        1 UNK      0.032700
     28 HC61        0.0350   -2.4930   -1.7160 hc        1 UNK      0.069700
     29 C8         -0.7940   -3.6830    1.1840 ca        1 UNK     -0.026000
     30 C9         -1.0930   -4.4740    0.0610 ca        1 UNK     -0.133000
     31 H91        -1.3360   -4.0490   -0.8930 ha        1 UNK      0.129000
     32 C10        -1.1090   -5.8660    0.1240 ca        1 UNK     -0.124000
     33 C11        -0.8400   -6.5190    1.3190 ca        1 UNK     -0.133000
     34 H102       -1.3310   -6.4430   -0.7690 ha        1 UNK      0.131000
     35 C12        -0.5780   -5.7680    2.4560 ca        1 UNK     -0.112000
     36 H112       -0.8470   -7.6050    1.3670 ha        1 UNK      0.133000
     37 C13        -0.5670   -4.3720    2.3970 ca        1 UNK     -0.043000
     38 H122       -0.3800   -6.2760    3.3960 ha        1 UNK      0.133000
     39 C14        -0.3280   -3.6830    3.5810 ca        1 UNK     -0.119000
     40 C15        -0.3230   -2.2980    3.5840 ca        1 UNK     -0.127000
     41 H142       -0.1600   -4.2230    4.5110 ha        1 UNK      0.133000
     42 C16        -0.5140   -1.6060    2.3950 ca        1 UNK     -0.099000
     43 H152       -0.1530   -1.7550    4.5120 ha        1 UNK      0.138000
     44 H161       -0.4890   -0.5220    2.4430 ha        1 UNK      0.173000
@<TRIPOS>BOND
     1    5    2 1   
     2    5    8 2   
     3    5    9 1   
     4   11    9 1   
     5   11   13 1   
     6   11   14 1   
     7   11   12 1   
     8   10    9 1   
     9   10   17 1   
    10   10   15 1   
    11   10   16 1   
    12    3    1 1   
    13    3   21 1   
    14    3   18 2   
    15    4    1 1   
    16    2    1 1   
    17    2    6 1   
    18    2    7 1   
    19   19   21 1   
    20   20   21 1   
    21   21   22 1   
    22   23    4 1   
    23   24    4 1   
    24   25    4 1   
    25   26   24 1   
    26   27   24 1   
    27   28   24 1   
    28   29   25 ar  
    29   30   29 ar  
    30   31   30 1   
    31   32   30 ar  
    32   33   32 ar  
    33   34   32 1   
    34   35   33 ar  
    35   36   33 1   
    36   37   35 ar  
    37   38   35 1   
    38   37   29 ar  
    39   39   37 ar  
    40   40   39 ar  
    41   41   39 1   
    42   42   40 ar  
    43   43   40 1   
    44   42   25 ar  
    45   44   42 1   
@<TRIPOS>SUBSTRUCTURE
     1 UNK         1 TEMP              0 ****  ****    0 ROOT
