@<TRIPOS>MOLECULE
rpe.pdb
38 38 1 0 0
SMALL
AMBER ff99SB


@<TRIPOS>ATOM
      1 N           8.3864   -5.0963   -8.7748 N.3       1 UNK   -0.4608
      2 C2          7.7760   -5.6642  -10.0055 C.3       1 UNK    0.1570
      3 C1          6.3134   -5.1915  -10.2104 C.3       1 UNK   -0.1111
      4 C3          8.0449   -7.1755  -10.0638 C.ar      1 UNK   -0.1033
      5 C4          7.0167   -8.1208  -10.2016 C.ar      1 UNK   -0.1210
      6 C5          7.3113   -9.4834  -10.2277 C.ar      1 UNK   -0.1320
      7 H42         5.9790   -7.8086  -10.2941 H         1 UNK    0.1380
      8 C6          8.6321   -9.9239  -10.1176 C.ar      1 UNK   -0.1240
      9 H52         6.5103  -10.2121  -10.3369 H         1 UNK    0.1330
     10 H61         8.8600  -10.9913  -10.1386 H         1 UNK    0.1330
     11 C7          9.6584   -8.9943   -9.9861 C.ar      1 UNK   -0.1300
     12 H71        10.6909   -9.3298   -9.8983 H         1 UNK    0.1340
     13 C8          9.3677   -7.6304   -9.9667 C.ar      1 UNK   -0.1160
     14 H81        10.1885   -6.9220   -9.8618 H         1 UNK    0.1310
     15 CA          7.8086   -5.6464   -7.5152 C.3       1 UNK    0.0310
     16 HA2         6.7971   -6.0116   -7.6770 H         1 UNK    0.0787
     17 C           7.7220   -4.6870   -6.3289 C.2       1 UNK    0.6381
     18 HA1         8.4366   -6.4826   -7.2009 H         1 UNK    0.0907
     19 O           7.7329   -3.4797   -6.4605 O.2       1 UNK   -0.6071
     20 N2          7.5051   -5.2313   -5.1039 N.am      1 UNK   -0.4758
     21 C9          9.5909   -4.4580   -8.7429 C.2       1 UNK    0.6671
     22 H11         5.6298   -5.6101   -9.4700 H         1 UNK    0.0527
     23 H12         6.2501   -4.1039  -10.1480 H         1 UNK    0.0597
     24 HC11        5.9575   -5.4872  -11.1976 H         1 UNK    0.0437
     25 H21         8.2982   -5.2520  -10.8709 H         1 UNK    0.0607
     26 C11        10.0998   -3.7922  -10.0005 C.3       1 UNK   -0.1671
     27 O1         10.3095   -4.5269   -7.7689 O.2       1 UNK   -0.6081
     28 H111       10.9828   -3.1943   -9.7643 H         1 UNK    0.0777
     29 H112        9.3325   -3.1332  -10.4091 H         1 UNK    0.0657
     30 H2         10.3776   -4.5412  -10.7433 H         1 UNK    0.0577
     31 C10         7.1673   -6.6499   -4.8673 C.3       1 UNK    0.0763
     32 C12         7.6963   -4.4400   -3.8712 C.3       1 UNK    0.0743
     33 H101        6.9350   -6.8339   -3.8143 H         1 UNK    0.0487
     34 H102        6.2886   -6.9123   -5.4624 H         1 UNK    0.0367
     35 H3          8.0076   -7.2849   -5.1578 H         1 UNK    0.0337
     36 H121        7.2805   -4.9505   -2.9965 H         1 UNK    0.0317
     37 H122        8.7690   -4.2878   -3.7155 H         1 UNK    0.0257
     38 H1          7.2117   -3.4635   -3.9741 H         1 UNK    0.0787
@<TRIPOS>BOND
     1   17   15 1
     2   17   19 2
     3   17   20 am
     4    3    2 1
     5    3   22 1
     6    3   23 1
     7    3   24 1
     8   31   20 1
     9   31   33 1
    10   31   34 1
    11   31   35 1
    12   26   21 1
    13   26   28 1
    14   26   29 1
    15   26   30 1
    16   32   20 1
    17   32   36 1
    18   32   37 1
    19   32   38 1
    20    2   25 1
    21    2    1 1
    22    2    4 1
    23    4   13 ar
    24    4    5 ar
    25    5    7 1
    26    5    6 ar
    27    6    9 1
    28    6    8 ar
    29    8   10 1
    30    8   11 ar
    31   11   12 1
    32   11   13 ar
    33   13   14 1
    34   21   27 2
    35   21    1 1
    36   15   16 1
    37   15   18 1
    38   15    1 1
@<TRIPOS>SUBSTRUCTURE
     1 UNK    15 RESIDUE           4 A     UNK     0 ROOT
